107
Energy =
Mo    0.0000000    0.0000000    0.0000000 
Y     0.0000000    0.0000000   -3.4329881 
S     1.3443911    1.1731452   -1.3582855 
S    -1.3443911   -1.1731452   -1.3582855 
S     1.1731452   -1.3443911    1.3582855 
S    -1.1731452    1.3443911    1.3582855 
C     2.3942072   -0.8597111   -4.1898469 
C     1.9672323   -1.7990319   -3.2030605 
C     0.8552536   -2.5151769   -3.7303080 
C     0.5993531   -2.0320689   -5.0505331 
C     1.5645224   -1.0168284   -5.3422045 
C    -0.8552536    2.5151769   -3.7303080 
C    -1.9672323    1.7990319   -3.2030605 
C    -2.3942072    0.8597111   -4.1898469 
C    -1.5645224    1.0168284   -5.3422045 
C    -0.5993531    2.0320689   -5.0505331 
C     0.1668791   -3.6800792   -3.0770039 
C    -0.3715197   -2.6577605   -6.0143863 
C     2.6467851   -2.0722488   -1.8945129 
C     1.8485283   -0.4180775   -6.6903900 
C     3.5809984    0.0557245   -4.0665773 
C     0.3715197    2.6577605   -6.0143863 
C    -2.6467851    2.0722488   -1.8945129 
C    -3.5809984   -0.0557245   -4.0665773 
C    -1.8485283    0.4180775   -6.6903900 
H     3.4580650   -2.8130948   -2.0234113 
H     1.9462646   -2.4694447   -1.1466858 
H    -1.9462646    2.4694447   -1.1466858 
H    -3.4580650    2.8130948   -2.0234113 
H     3.0836529   -1.1597831   -1.4635291 
H    -3.0836529    1.1597831   -1.4635291 
H     3.4686345    0.9571185   -4.6903213 
H     4.5147710   -0.4452818   -4.3839246 
H     3.7161514    0.3889127   -3.0264590 
H    -3.4686345   -0.9571185   -4.6903213 
H    -4.5147710    0.4452818   -4.3839246 
H    -3.7161514   -0.3889127   -3.0264590 
C    -0.1668791    3.6800792   -3.0770039 
H    -0.6585887    4.6321727   -3.3530877 
H     0.8887051    3.7537669   -3.3805182 
H    -0.1832664    3.5922606   -1.9812699 
H     0.6585887   -4.6321727   -3.3530877 
H    -0.8887051   -3.7537669   -3.3805182 
H     0.9415740   -0.3066454   -7.3018856 
H    -0.9415740    0.3066454   -7.3018856 
H     0.0444194    3.6752198   -6.2979965 
H    -0.0444194   -3.6752198   -6.2979965 
H     0.1832664   -3.5922606   -1.9812699 
Y     0.0000000   -0.0000000    3.4329881 
C     0.8597111    2.3942072    4.1898469 
C    -0.8597111   -2.3942072    4.1898469 
C     2.5151769    0.8552536    3.7303080 
C    -2.5151769   -0.8552536    3.7303080 
C     1.7990319    1.9672323    3.2030605 
C    -1.7990319   -1.9672323    3.2030605 
C     2.0320689    0.5993531    5.0505331 
C    -2.0320689   -0.5993531    5.0505331 
C     1.0168284    1.5645224    5.3422045 
C    -1.0168284   -1.5645224    5.3422045 
C     3.6800792    0.1668791    3.0770039 
C    -3.6800792   -0.1668791    3.0770039 
C    -0.0557245    3.5809984    4.0665773 
C     0.0557245   -3.5809984    4.0665773 
C     2.6577605   -0.3715197    6.0143863 
C    -2.6577605    0.3715197    6.0143863 
C     0.4180775    1.8485283    6.6903900 
C    -0.4180775   -1.8485283    6.6903900 
C     2.0722488    2.6467851    1.8945129 
C    -2.0722488   -2.6467851    1.8945129 
H     2.8130948    3.4580650    2.0234113 
H    -2.8130948   -3.4580650    2.0234113 
H     2.4694447    1.9462646    1.1466858 
H    -2.4694447   -1.9462646    1.1466858 
H     1.1597831    3.0836529    1.4635291 
H    -1.1597831   -3.0836529    1.4635291 
H    -0.9571185    3.4686345    4.6903213 
H     0.9571185   -3.4686345    4.6903213 
H     3.7537669   -0.8887051    3.3805182 
H    -3.7537669    0.8887051    3.3805182 
H     0.4452818    4.5147710    4.3839246 
H    -0.4452818   -4.5147710    4.3839246 
H     4.6321727    0.6585887    3.3530877 
H    -4.6321727   -0.6585887    3.3530877 
H    -0.3889127    3.7161514    3.0264590 
H     0.3889127   -3.7161514    3.0264590 
H     3.5922606    0.1832664    1.9812699 
H    -3.5922606   -0.1832664    1.9812699 
H     2.7590866   -1.3836583    5.5875917 
H    -1.3836583   -2.7590866   -5.5875917 
H     1.3836583    2.7590866   -5.5875917 
H     0.3066454    0.9415740    7.3018856 
H    -0.3066454   -0.9415740    7.3018856 
H     2.0728688   -0.4594604    6.9398922 
H    -0.4594604   -2.0728688   -6.9398922 
H    -2.0728688    0.4594604    6.9398922 
H     0.4594604    2.0728688   -6.9398922 
H    -2.7590866    1.3836583    5.5875917 
H     0.5720819   -2.3197224    6.6097501 
H    -2.3197224   -0.5720819   -6.6097501 
H    -0.5720819    2.3197224    6.6097501 
H     2.3197224    0.5720819   -6.6097501 
H    -3.6752198    0.0444194    6.2979965 
H     3.6752198   -0.0444194    6.2979965 
H    -1.0611786   -2.5451796    7.2606127 
H    -2.5451796    1.0611786   -7.2606127 
H     1.0611786    2.5451796    7.2606127 
H     2.5451796   -1.0611786   -7.2606127 
