107
Energy =
Mo    2.9591012   10.0689760   11.7355173 
Y     0.0171297   10.2536280   10.0603506 
Y     5.6942437   10.1316141   13.7378062 
S     2.7012215   10.4345686    9.5414676 
S     0.9237945    9.6271879   12.5622400 
S     4.3644547    8.3674804   12.1164692 
S     3.8317866   11.8684962   12.7455007 
C     0.1993192    8.2978641    8.2733947 
C     0.3455327    7.6632581    9.5425775 
C    -0.9016755    7.7622295   10.2271683 
C    -1.8258214    8.4425466    9.3767296 
C    -1.1431615    8.7736267    8.1635936 
C     0.3495435   12.9187046   10.1357218 
C    -0.3727048   12.5940247   11.3181069 
C    -1.6600888   12.1074298   10.9307743 
C    -1.7454140   12.1636381    9.5046057 
C    -0.4879131   12.6331182    9.0126993 
C     7.3097379   11.7914075   12.4238857 
C     8.0793628   11.3182756   13.5302336 
C     8.3239398    9.9228430   13.3291686 
C     7.6989622    9.5416335   12.1025315 
C     7.0826614   10.6975319   11.5375634 
C     5.2393835   10.7745406   16.2646682 
C     6.1827287    9.7011964   16.3152436 
C     5.5273777    8.5243737   15.8367024 
C     4.1682521    8.8599680   15.5464873 
C     3.9908018   10.2472777   15.8095519 
C    -1.2378732    7.1358073   11.5514411 
C    -3.2999106    8.5577956    9.6511981 
C     1.5681324    6.9488019   10.0383959 
C    -1.7523087    9.3048217    6.8954528 
C     1.2289992    8.3415018    7.1791622 
C    -0.1296874   12.9107093    7.5781130 
C     1.6870451   13.5989421   10.0783406 
C     0.0733263   12.8666986   12.7263057 
C    -2.7669085   11.7395733   11.8812934 
C    -3.0060584   12.0343359    8.6985160 
C     3.0837381    7.8836687   15.1922639 
C     2.6863453   10.9912019   15.7720524 
C     5.4617412   12.1841991   16.7413629 
C     7.5124670    9.7398859   17.0126094 
C     6.1073249    7.1381926   15.7607084 
C     8.6959284   12.2087308   14.5733999 
C     6.9362561   13.2254060   12.1732246 
C     6.3873573   10.7717552   10.2100986 
C     9.2612045    9.0443181   14.1107986 
C     7.7961348    8.1846097   11.4630859 
H    -0.2186546   13.9862531    7.3362067 
H    -0.7856563   12.3664345    6.8816133 
H     0.9093350   12.6161378    7.3578908 
H    -3.5701862   11.1853972   11.3730381 
H    -3.2265426   12.6367478   12.3360711 
H    -2.4001648   11.1123939   12.7106153 
H    -3.8074306    9.1789042    8.8999232 
H    -3.5140360    8.9915711   10.6415213 
H    -3.7805243    7.5623308    9.6302495 
H    -0.3474085    7.0513592   12.1907729 
H    -1.6592892    6.1218037   11.4148900 
H    -1.9836251    7.7267169   12.1065831 
H     2.4877712    7.3942969    9.6322865 
H     1.5492306    5.8818753    9.7482647 
H     1.6487387    6.9997857   11.1340864 
H     1.1208217    7.4774932    6.4963244 
H     2.2487306    8.3248302    7.5901031 
H     1.1377794    9.2531326    6.5673569 
H    -1.1789341   10.1430188    6.4663574 
H    -2.7816657    9.6542814    7.0540049 
H    -1.7888140    8.5167842    6.1209264 
H    -2.8012083   11.7890074    7.6473694 
H    -3.5623777   12.9906398    8.7044701 
H    -3.6840278   11.2667682    9.0974520 
H     2.2457067   13.3223553    9.1722239 
H     2.3179167   13.3327850   10.9385074 
H     1.5591454   14.6980799   10.0762502 
H     1.1626895   12.7648231   12.8379944 
H    -0.3905937   12.1710382   13.4405454 
H    -0.2052413   13.8948071   13.0258213 
H     2.0177756   10.6061377   14.9882106 
H     2.8356827   12.0620686   15.5713360 
H     2.1624916   10.8988798   16.7422898 
H     5.0112615   12.9222243   16.0572145 
H     6.5333354   12.4183495   16.8270685 
H     5.0099760   12.3519015   17.7367980 
H     8.1685324    8.9186614   16.6933455 
H     7.3730073    9.6363707   18.1051933 
H     8.0505018   10.6840806   16.8467752 
H     5.7719826    6.6110099   14.8527303 
H     5.8019486    6.5195108   16.6250790 
H     7.2079285    7.1569663   15.7479958 
H     2.2815257    8.3576845   14.6088543 
H     2.6334379    7.4605797   16.1102392 
H     3.4691300    7.0485742   14.5891790 
H     9.4926281   12.8361429   14.1325679 
H     9.1535226   11.6293638   15.3876483 
H     7.9641552   12.8975890   15.0254695 
H     6.0370842   13.3000196   11.5449968 
H     7.7567213   13.7648837   11.6631023 
H     6.7249948   13.7638107   13.1106953 
H     5.9151930    9.8139835    9.9480201 
H     7.0977419   11.0342193    9.4042942 
H     5.5882852   11.5275725   10.2150213 
H     8.8108890    8.0749417   14.3810554 
H     9.5909532    9.5271854   15.0406200 
H    10.1670176    8.8185118   13.5185663 
H     8.7264287    8.0885434   10.8716570 
H     6.9455005    7.9986563   10.7916564 
H     7.8032536    7.3778444   12.2133731 
