47
Energy =
Mo    0.0000000    0.0000000    0.0000000 
Y    -0.0000000    0.0000000   -3.3455818 
Y    -0.0000000   -0.0000000    3.3455818 
S     1.2865589    1.2865589   -1.2836186 
S    -1.2865589   -1.2865589   -1.2836186 
S     1.2865589   -1.2865589    1.2836186 
S    -1.2865589    1.2865589    1.2836186 
C     2.4275799   -0.8028699   -3.9885965 
C     1.8665639   -1.8665639   -3.2326628 
C     0.8028699   -2.4275799   -3.9885965 
C     0.7082488   -1.7143911   -5.2141400 
C     1.7143911   -0.7082488   -5.2141400 
C    -0.8028699    2.4275799   -3.9885965 
C    -1.8665639    1.8665639   -3.2326628 
C    -2.4275799    0.8028699   -3.9885965 
C    -1.7143911    0.7082488   -5.2141400 
C    -0.7082488    1.7143911   -5.2141400 
C     0.8028699    2.4275799    3.9885965 
C     0.7082488    1.7143911    5.2141400 
C     1.7143911    0.7082488    5.2141400 
C     2.4275799    0.8028699    3.9885965 
C     1.8665639    1.8665639    3.2326628 
C    -2.4275799   -0.8028699    3.9885965 
C    -1.7143911   -0.7082488    5.2141400 
C    -0.7082488   -1.7143911    5.2141400 
C    -0.8028699   -2.4275799    3.9885965 
C    -1.8665639   -1.8665639    3.2326628 
H     0.1679535   -3.2577652   -3.6783423 
H    -0.0020321   -1.9102862   -6.0175896 
H     2.1744057   -2.1744057   -2.2334466 
H     1.9102862    0.0020321   -6.0175896 
H     3.2577652   -0.1679535   -3.6783423 
H     0.0020321    1.9102862   -6.0175896 
H    -0.1679535    3.2577652   -3.6783423 
H    -2.1744057    2.1744057   -2.2334466 
H    -3.2577652    0.1679535   -3.6783423 
H    -1.9102862   -0.0020321   -6.0175896 
H    -0.1679535   -3.2577652    3.6783423 
H    -2.1744057   -2.1744057    2.2334466 
H    -3.2577652   -0.1679535    3.6783423 
H    -1.9102862    0.0020321    6.0175896 
H     0.0020321   -1.9102862    6.0175896 
H    -0.0020321    1.9102862    6.0175896 
H     0.1679535    3.2577652    3.6783423 
H     2.1744057    2.1744057    2.2334466 
H     1.9102862   -0.0020321    6.0175896 
H     3.2577652    0.1679535    3.6783423 
