47
Energy =
Mo   -0.0000000    0.0000000    0.0000000 
Dy   -0.0000000    0.0000000   -3.3770446 
Dy   -0.0000000    0.0000000    3.3770446 
S     1.2635821    1.2635821   -1.3242263 
S    -1.2635821   -1.2635821   -1.3242263 
S     1.2635821   -1.2635821    1.3242263 
S    -1.2635821    1.2635821    1.3242263 
C     2.4543380   -0.8385067   -4.0336445 
C     1.8929851   -1.8929851   -3.2794725 
C     0.8385067   -2.4543380   -4.0336445 
C     0.7430913   -1.7448690   -5.2538046 
C     1.7448690   -0.7430913   -5.2538046 
C    -0.8385067    2.4543380   -4.0336445 
C    -1.8929851    1.8929851   -3.2794725 
C    -2.4543380    0.8385067   -4.0336445 
C    -1.7448690    0.7430913   -5.2538046 
C    -0.7430913    1.7448690   -5.2538046 
C     0.8385067    2.4543380    4.0336445 
C     0.7430913    1.7448690    5.2538046 
C     1.7448690    0.7430913    5.2538046 
C     2.4543380    0.8385067    4.0336445 
C     1.8929851    1.8929851    3.2794725 
C    -2.4543380   -0.8385067    4.0336445 
C    -1.7448690   -0.7430913    5.2538046 
C    -0.7430913   -1.7448690    5.2538046 
C    -0.8385067   -2.4543380    4.0336445 
C    -1.8929851   -1.8929851    3.2794725 
H     0.2003418   -3.2667034   -3.7164449 
H     0.0362887   -1.9363349   -6.0489610 
H     2.1829382   -2.1829382   -2.2801087 
H     1.9363349   -0.0362887   -6.0489610 
H     3.2667034   -0.2003418   -3.7164449 
H    -0.0362887    1.9363349   -6.0489610 
H    -0.2003418    3.2667034   -3.7164449 
H    -2.1829382    2.1829382   -2.2801087 
H    -3.2667034    0.2003418   -3.7164449 
H    -1.9363349    0.0362887   -6.0489610 
H    -0.2003418   -3.2667034    3.7164449 
H    -2.1829382   -2.1829382    2.2801087 
H    -3.2667034   -0.2003418    3.7164449 
H    -1.9363349   -0.0362887    6.0489610 
H    -0.0362887   -1.9363349    6.0489610 
H     0.0362887    1.9363349    6.0489610 
H     0.2003418    3.2667034    3.7164449 
H     2.1829382    2.1829382    2.2801087 
H     1.9363349    0.0362887    6.0489610 
H     3.2667034    0.2003418    3.7164449 
