107
Energy =
Mo   -0.0000000    0.0000000    0.0000000 
Y     0.0000000   -0.0000000   -3.5174465 
S     1.2280828    1.2280828   -1.4182293 
S    -1.2280828   -1.2280828   -1.4182293 
S     1.2280828   -1.2280828    1.4182293 
S    -1.2280828    1.2280828    1.4182293 
C     2.4761001   -0.8449234   -4.0327023 
C     1.8775974   -1.8775974   -3.2515382 
C     0.8449234   -2.4761001   -4.0327023 
C     0.8147688   -1.8265018   -5.3038926 
C     1.8265018   -0.8147688   -5.3038926 
C    -0.8449234    2.4761001   -4.0327023 
C    -1.8775974    1.8775974   -3.2515382 
C    -2.4761001    0.8449234   -4.0327023 
C    -1.8265018    0.8147688   -5.3038926 
C    -0.8147688    1.8265018   -5.3038926 
C     0.0234386   -3.6711822   -3.6380742 
C     0.0542602   -2.3223139   -6.5007609 
C     2.3258916   -2.3258916   -1.8928178 
C     2.3223139   -0.0542602   -6.5007609 
C     3.6711822   -0.0234386   -3.6380742 
C    -0.0542602    2.3223139   -6.5007609 
C    -2.3258916    2.3258916   -1.8928178 
C    -3.6711822    0.0234386   -3.6380742 
C    -2.3223139    0.0542602   -6.5007609 
H     3.1058576   -3.1058576   -1.9730406 
H     1.4923886   -2.7413672   -1.3089934 
H    -1.4923886    2.7413672   -1.3089934 
H    -3.1058576    3.1058576   -1.9730406 
H     2.7413672   -1.4923886   -1.3089934 
H    -2.7413672    1.4923886   -1.3089934 
H     3.6541714    0.9743115   -4.1049412 
H     4.6125170   -0.5142408   -3.9491791 
H     3.7069225    0.1255792   -2.5492782 
H    -3.6541714   -0.9743115   -4.1049412 
H    -4.6125170    0.5142408   -3.9491791 
H    -3.7069225   -0.1255792   -2.5492782 
C    -0.0234386    3.6711822   -3.6380742 
H    -0.5142408    4.6125170   -3.9491791 
H     0.9743115    3.6541714   -4.1049412 
H     0.1255792    3.7069225   -2.5492782 
H     0.5142408   -4.6125170   -3.9491791 
H    -0.9743115   -3.6541714   -4.1049412 
H     1.5593267    0.0165790   -7.2883365 
H    -1.5593267   -0.0165790   -7.2883365 
H    -0.5568794    3.2028284   -6.9434547 
H     0.5568794   -3.2028284   -6.9434547 
H    -0.1255792   -3.7069225   -2.5492782 
Y     0.0000000    0.0000000    3.5174465 
C     0.8449234    2.4761001    4.0327023 
C    -0.8449234   -2.4761001    4.0327023 
C     2.4761001    0.8449234    4.0327023 
C    -2.4761001   -0.8449234    4.0327023 
C     1.8775974    1.8775974    3.2515382 
C    -1.8775974   -1.8775974    3.2515382 
C     1.8265018    0.8147688    5.3038926 
C    -1.8265018   -0.8147688    5.3038926 
C     0.8147688    1.8265018    5.3038926 
C    -0.8147688   -1.8265018    5.3038926 
C     3.6711822    0.0234386    3.6380742 
C    -3.6711822   -0.0234386    3.6380742 
C     0.0234386    3.6711822    3.6380742 
C    -0.0234386   -3.6711822    3.6380742 
C     2.3223139    0.0542602    6.5007609 
C    -2.3223139   -0.0542602    6.5007609 
C     0.0542602    2.3223139    6.5007609 
C    -0.0542602   -2.3223139    6.5007609 
C     2.3258916    2.3258916    1.8928178 
C    -2.3258916   -2.3258916    1.8928178 
H     3.1058576    3.1058576    1.9730406 
H    -3.1058576   -3.1058576    1.9730406 
H     2.7413672    1.4923886    1.3089934 
H    -2.7413672   -1.4923886    1.3089934 
H     1.4923886    2.7413672    1.3089934 
H    -1.4923886   -2.7413672    1.3089934 
H    -0.9743115    3.6541714    4.1049412 
H     0.9743115   -3.6541714    4.1049412 
H     3.6541714   -0.9743115    4.1049412 
H    -3.6541714    0.9743115    4.1049412 
H     0.5142408    4.6125170    3.9491791 
H    -0.5142408   -4.6125170    3.9491791 
H     4.6125170    0.5142408    3.9491791 
H    -4.6125170   -0.5142408    3.9491791 
H    -0.1255792    3.7069225    2.5492782 
H     0.1255792   -3.7069225    2.5492782 
H     3.7069225   -0.1255792    2.5492782 
H    -3.7069225    0.1255792    2.5492782 
H     2.6343788   -0.9705677    6.2471629 
H    -0.9705677   -2.6343788   -6.2471629 
H     0.9705677    2.6343788   -6.2471629 
H    -0.0165790    1.5593267    7.2883365 
H     0.0165790   -1.5593267    7.2883365 
H     1.5593267   -0.0165790    7.2883365 
H    -0.0165790   -1.5593267   -7.2883365 
H    -1.5593267    0.0165790    7.2883365 
H     0.0165790    1.5593267   -7.2883365 
H    -2.6343788    0.9705677    6.2471629 
H     0.9705677   -2.6343788    6.2471629 
H    -2.6343788   -0.9705677   -6.2471629 
H    -0.9705677    2.6343788    6.2471629 
H     2.6343788    0.9705677   -6.2471629 
H    -3.2028284   -0.5568794    6.9434547 
H     3.2028284    0.5568794    6.9434547 
H    -0.5568794   -3.2028284    6.9434547 
H    -3.2028284    0.5568794   -6.9434547 
H     0.5568794    3.2028284    6.9434547 
H     3.2028284   -0.5568794   -6.9434547 
