107
Energy =
Mo    0.0000000    0.0000000    0.0000111 
Y     0.0000000   -0.0000000   -3.5074846 
S     1.2899209    1.1792337   -1.4153056 
S    -1.2899209   -1.1792337   -1.4153056 
S     1.1797053   -1.2894938    1.4153123 
S    -1.1797053    1.2894938    1.4153123 
C     2.4000817   -0.8568813   -4.2281792 
C     1.9464129   -1.8075570   -3.2635983 
C     0.8476747   -2.5162532   -3.8293029 
C     0.6224700   -2.0130993   -5.1464888 
C     1.5941810   -0.9928574   -5.4001789 
C    -0.8476747    2.5162532   -3.8293029 
C    -1.9464129    1.8075570   -3.2635983 
C    -2.4000817    0.8568813   -4.2281792 
C    -1.5941810    0.9928574   -5.4001789 
C    -0.6224700    2.0130993   -5.1464888 
C     0.1482985   -3.6935453   -3.2114073 
C    -0.3156290   -2.6320663   -6.1464114 
C     2.5814881   -2.0949786   -1.9355094 
C     1.8967592   -0.3708921   -6.7337516 
C     3.5840428    0.0552521   -4.0606777 
C     0.3156290    2.6320663   -6.1464114 
C    -2.5814881    2.0949786   -1.9355094 
C    -3.5840428   -0.0552521   -4.0606777 
C    -1.8967592    0.3708921   -6.7337516 
H     3.3747318   -2.8591426   -2.0369875 
H     1.8458089   -2.4710622   -1.2100686 
H    -1.8458089    2.4710622   -1.2100686 
H    -3.3747318    2.8591426   -2.0369875 
H     3.0286868   -1.1924105   -1.4952532 
H    -3.0286868    1.1924105   -1.4952532 
H     3.5065892    0.9471703   -4.7030065 
H     4.5288190   -0.4554630   -4.3246928 
H     3.6683715    0.4029635   -3.0195960 
H    -3.5065892   -0.9471703   -4.7030065 
H    -4.5288190    0.4554630   -4.3246928 
H    -3.6683715   -0.4029635   -3.0195960 
C    -0.1482985    3.6935453   -3.2114073 
H    -0.6654109    4.6367320   -3.4708269 
H     0.8915461    3.7807098   -3.5624309 
H    -0.1141891    3.6084411   -2.1159415 
H     0.6654109   -4.6367320   -3.4708269 
H    -0.8915461   -3.7807098   -3.5624309 
H     0.9949374   -0.2399292   -7.3495655 
H    -0.9949374    0.2399292   -7.3495655 
H    -0.0366162    3.6366894   -6.4452951 
H     0.0366162   -3.6366894   -6.4452951 
H     0.1141891   -3.6084411   -2.1159415 
Y     0.0000000    0.0000000    3.5074911 
C     0.8558082    2.4004621    4.2281783 
C    -0.8558082   -2.4004621    4.2281783 
C     2.5158753    0.8487973    3.8293071 
C    -2.5158753   -0.8487973    3.8293071 
C     1.8066888    1.9472163    3.2635992 
C    -1.8066888   -1.9472163    3.2635992 
C     2.0128233    0.6233700    5.1464938 
C    -2.0128233   -0.6233700    5.1464938 
C     0.9921457    1.5946249    5.4001810 
C    -0.9921457   -1.5946249    5.4001810 
C     3.6934707    0.1499419    3.2114014 
C    -3.6934707   -0.1499419    3.2114014 
C    -0.0568569    3.5840137    4.0606743 
C     0.0568569   -3.5840137    4.0606743 
C     2.6322098   -0.3144520    6.1464162 
C    -2.6322098    0.3144520    6.1464162 
C     0.3700448    1.8969253    6.7337534 
C    -0.3700448   -1.8969253    6.7337534 
C     2.0938299    2.5824194    1.9355093 
C    -2.0938299   -2.5824194    1.9355093 
H     2.8576386    3.3760047    2.0369896 
H    -2.8576386   -3.3760047    2.0369896 
H     2.4702447    1.8469073    1.2100717 
H    -2.4702447   -1.8469073    1.2100717 
H     1.1910644    3.0292116    1.4952451 
H    -1.1910644   -3.0292116    1.4952451 
H    -0.9487361    3.5061625    4.7030091 
H     0.9487361   -3.5061625    4.7030091 
H     3.7810953   -0.8898670    3.5624160 
H    -3.7810953    0.8898670    3.5624160 
H     0.4534342    4.5290213    4.3246807 
H    -0.4534342   -4.5290213    4.3246807 
H     4.6364310    0.6674680    3.4708190 
H    -4.6364310   -0.6674680    3.4708190 
H    -0.4046130    3.6681812    3.0195935 
H     0.4046130   -3.6681812    3.0195935 
H     3.6083742    0.1158083    2.1159360 
H    -3.6083742   -0.1158083    2.1159360 
H     2.7616973   -1.3337239    5.7455856 
H    -1.3349579   -2.7611002   -5.7455796 
H     1.3349579    2.7611002   -5.7455796 
H     0.2394865    0.9950449    7.3495670 
H    -0.2394865   -0.9950449    7.3495670 
H     2.0283921   -0.3924620    7.0604474 
H    -0.3933710   -2.0282109   -7.0604404 
H    -2.0283921    0.3924620    7.0604474 
H     0.3933710    2.0282109   -7.0604404 
H    -2.7616973    1.3337239    5.7455856 
H     0.6151354   -2.3740739    6.6302519 
H    -2.3743495   -0.6140741   -6.6302500 
H    -0.6151354    2.3740739    6.6302519 
H     2.3743495    0.6140741   -6.6302500 
H    -3.6366764   -0.0382415    6.4452961 
H     3.6366764    0.0382415    6.4452961 
H    -1.0071693   -2.5930770    7.3111948 
H    -2.5926254    1.0083282   -7.3111933 
H     1.0071693    2.5930770    7.3111948 
H     2.5926254   -1.0083282   -7.3111933 
